*NODE, NSET=NALL
    1, 1.2000000000e-02, 2.5000000000e-03, 1.8000000000e-02
    2, 6.0000000000e-03, 2.5000000000e-03, 1.8000000000e-02
    3, 6.0000000000e-03, 2.5000000000e-03, 6.0000000000e-03
    4, 1.8000000000e-02, 2.5000000000e-03, 6.0000000000e-03
    5, 1.8000000000e-02, 2.5000000000e-03, 1.0772229000e-02
    6, 4.0000000000e-02, 2.5000000000e-03, 1.0772229000e-02
    7, 1.2000000000e-02, 2.5000000000e-03, 2.5000000000e-02
    8, 1.2000000000e-02, -2.5000000000e-03, 2.5000000000e-02
    9, 1.2000000000e-02, -2.5000000000e-03, 1.8000000000e-02
    10, 6.0000000000e-03, -2.5000000000e-03, 1.8000000000e-02
    11, 6.0000000000e-03, -2.5000000000e-03, 6.0000000000e-03
    12, 1.8000000000e-02, -2.5000000000e-03, 6.0000000000e-03
    13, 1.8000000000e-02, -2.5000000000e-03, 1.0772229000e-02
    14, 4.0000000000e-02, -2.5000000000e-03, 1.0772229000e-02
    15, 4.0000000000e-02, -2.5000000000e-03, 1.6653345369e-18
    16, 4.0000000000e-02, 2.5000000000e-03, -1.6653345369e-18
    17, 0.0000000000e+00, 2.5000000000e-03, 2.5000000000e-02
    18, 0.0000000000e+00, -2.5000000000e-03, 2.5000000000e-02
    19, 0.0000000000e+00, -2.5000000000e-03, 1.6653345369e-18
    20, 0.0000000000e+00, 2.5000000000e-03, -1.6653345369e-18
** ... 2014 like lines cut
*ELEMENT, TYPE=B31, ELSET=B31
    1, 23, 7, 
    2, 24, 23, 
    3, 25, 24, 
    4, 1, 25, 
    5, 8, 26, 
    6, 26, 27, 
    7, 27, 28, 
    8, 28, 9, 
    9, 7, 29, 
    10, 29, 30, 
    11, 30, 8, 
    12, 10, 31, 
    13, 31, 32, 
    14, 32, 2, 
    15, 11, 33, 
    16, 33, 34, 
    17, 34, 3, 
    18, 12, 35, 
    19, 35, 36, 
    20, 36, 4, 
** ... 197 like lines cut
*ELEMENT, TYPE=CPS3, ELSET=CPS3
    218, 182, 181, 172, 
    266, 107, 108, 151, 
    296, 75, 74, 155, 
    542, 429, 431, 428, 
    558, 690, 686, 687, 
    560, 699, 701, 700, 
    572, 434, 435, 447, 
    581, 447, 449, 446, 
    588, 445, 443, 444, 
    589, 670, 680, 675, 
    606, 696, 697, 694, 
    609, 460, 461, 453, 
    611, 452, 461, 214, 
    642, 208, 483, 207, 
    654, 227, 228, 480, 
    656, 474, 475, 485, 
    659, 655, 678, 698, 
    664, 493, 491, 492, 
    690, 508, 489, 490, 
    692, 225, 224, 492, 
** ... 20 like lines cut
*ELEMENT, TYPE=CPS4, ELSET=CPS4
    219, 6, 46, 130, 63, 
    220, 46, 47, 131, 130, 
    221, 47, 14, 57, 131, 
    222, 57, 58, 132, 131, 
    223, 58, 59, 133, 132, 
    224, 59, 60, 134, 133, 
    225, 60, 15, 62, 134, 
    226, 61, 16, 66, 135, 
    227, 62, 61, 135, 134, 
    228, 64, 63, 130, 136, 
    229, 65, 64, 136, 137, 
    230, 66, 65, 137, 135, 
    231, 131, 132, 136, 130, 
    232, 136, 132, 133, 137, 
    233, 137, 133, 134, 135, 
    234, 181, 180, 171, 172, 
    235, 173, 174, 175, 183, 
    236, 176, 167, 168, 177, 
    237, 178, 169, 170, 179, 
    238, 173, 183, 182, 172, 
** ... 689 like lines cut
*ELEMENT, TYPE=C3D4, ELSET=C3D4
    967, 741, 112, 785, 155, 
    968, 557, 1916, 977, 559, 
    969, 1535, 1008, 1878, 1055, 
    970, 976, 1770, 773, 711, 
    971, 820, 1424, 463, 189, 
    972, 1678, 558, 977, 761, 
    973, 1759, 858, 831, 1022, 
    974, 1717, 1769, 35, 1089, 
    975, 751, 163, 1473, 1344, 
    976, 34, 836, 1138, 1014, 
    977, 623, 772, 667, 1345, 
    978, 89, 1346, 726, 559, 
    979, 1139, 968, 1393, 863, 
    980, 715, 1347, 626, 119, 
    981, 714, 626, 118, 1347, 
    982, 1691, 1404, 1020, 768, 
    983, 1357, 1474, 747, 161, 
    984, 921, 1509, 532, 531, 
    985, 180, 1024, 844, 710, 
    986, 1345, 667, 1605, 1537, 
** ... 8223 like lines cut
*NSET, NSET=design_area
    1, 2, 3, 4, 5, 9, 10, 11, 
    12, 13, 21, 22, 31, 32, 33, 34, 
    35, 36, 184, 185, 186, 187, 188, 189, 
    190, 191, 192, 193, 194, 195, 196, 197, 
    198, 199, 200, 201, 202, 203, 204, 205, 
    206, 207, 208, 209, 210, 211, 212, 213, 
    214, 215, 216, 217, 218, 219, 220, 221, 
    222, 223, 224, 225, 226, 227, 228, 229, 
    230, 231, 232, 233, 234, 235, 236, 237, 
    238, 239, 240, 241, 242, 243, 244, 245, 
    246, 247, 248, 249, 250, 251, 252, 253, 
    254, 255, 256, 257, 258, 259, 260, 261, 
    262, 263, 264, 265, 266, 267, 268, 269, 
    270, 271, 272, 273, 274, 275, 276, 277, 
    278, 279, 280, 281, 282, 283, 284, 285, 
    286, 287, 288, 289, 290, 291, 292, 293, 
    294, 295, 296, 297, 298, 299, 300, 301, 
    302, 303, 304, 305, 306, 307, 308, 309, 
    310, 311, 312, 313, 314, 315, 316, 317, 
    318, 319, 320, 321, 322, 323, 324, 325, 
** ... 91 like lines cut
*NSET, NSET=fix_face
    17, 18, 19, 20, 88, 89, 90, 91, 
    92, 93, 94, 95, 96, 97, 98, 99, 
    119, 120, 121, 122, 123, 124, 125, 126, 
    127, 128, 129, 165, 166, 167, 168, 169, 
    170, 171, 172, 173, 174, 175, 176, 177, 
    178, 179, 180, 181, 182, 183, 
*NSET, NSET=face_front_behind
    1, 2, 3, 4, 5, 6, 7, 8, 
    9, 10, 11, 12, 13, 14, 15, 16, 
    17, 18, 19, 20, 21, 22, 23, 24, 
    25, 26, 27, 28, 37, 38, 39, 40, 
    41, 42, 43, 44, 45, 48, 49, 50, 
    51, 52, 53, 54, 55, 56, 57, 58, 
    59, 60, 63, 64, 65, 66, 67, 68, 
    69, 70, 71, 72, 73, 74, 75, 76, 
    77, 78, 79, 80, 81, 82, 83, 84, 
    85, 86, 87, 88, 89, 90, 91, 92, 
    93, 94, 95, 96, 97, 100, 101, 102, 
    103, 104, 105, 106, 107, 108, 109, 110, 
    111, 112, 113, 114, 115, 116, 117, 118, 
    119, 120, 121, 122, 123, 124, 125, 126, 
    127, 184, 185, 186, 187, 188, 189, 190, 
    191, 192, 193, 194, 195, 196, 197, 198, 
    199, 200, 201, 202, 203, 204, 205, 206, 
    207, 208, 209, 210, 211, 212, 213, 214, 
    215, 216, 217, 218, 219, 220, 221, 222, 
    223, 234, 235, 236, 237, 238, 239, 240, 
** ... 40 like lines cut
*NSET, NSET=load_face
    6, 14, 15, 16, 46, 47, 57, 58, 
    59, 60, 61, 62, 63, 64, 65, 66, 
    130, 131, 132, 133, 134, 135, 136, 137, 
*NSET, NSET=face_sub_mesh
    1, 2, 3, 4, 5, 9, 10, 11, 
    12, 13, 21, 22, 184, 185, 186, 187, 
    188, 189, 190, 191, 192, 193, 194, 195, 
    196, 197, 198, 199, 200, 201, 202, 203, 
    204, 205, 206, 207, 208, 209, 210, 211, 
    212, 213, 214, 215, 216, 217, 218, 219, 
    220, 221, 222, 223, 224, 225, 226, 227, 
    228, 229, 230, 231, 232, 233, 234, 235, 
    236, 237, 238, 239, 240, 241, 242, 243, 
    244, 245, 246, 247, 248, 249, 250, 251, 
    252, 253, 254, 255, 256, 257, 258, 259, 
    260, 261, 262, 263, 264, 265, 266, 267, 
    268, 269, 270, 271, 272, 273, 274, 275, 
    276, 277, 278, 279, 280, 281, 282, 283, 
    284, 285, 286, 287, 288, 289, 290, 291, 
    292, 293, 294, 295, 296, 297, 298, 299, 
    300, 301, 302, 303, 304, 305, 306, 307, 
    308, 309, 310, 311, 312, 313, 314, 315, 
    316, 317, 318, 319, 320, 321, 322, 323, 
    324, 325, 326, 327, 328, 329, 330, 331, 
** ... 11 like lines cut
*ELSET, ELSET=face_sub_mesh
    319, 320, 321, 322, 323, 324, 325, 326, 
    327, 328, 329, 330, 331, 332, 333, 334, 
    335, 336, 337, 338, 339, 340, 341, 342, 
    343, 344, 345, 346, 347, 348, 349, 350, 
    351, 352, 353, 354, 355, 356, 357, 358, 
    359, 360, 361, 362, 363, 364, 365, 366, 
    367, 368, 369, 370, 371, 372, 373, 374, 
    375, 376, 377, 378, 379, 380, 381, 382, 
    383, 384, 385, 386, 387, 388, 389, 390, 
    391, 392, 393, 394, 395, 396, 397, 398, 
    399, 400, 401, 402, 403, 404, 405, 406, 
    407, 408, 409, 410, 411, 412, 413, 414, 
    415, 416, 417, 418, 419, 420, 421, 422, 
    423, 424, 425, 426, 427, 428, 429, 430, 
    431, 432, 433, 434, 435, 436, 437, 438, 
    439, 440, 441, 442, 443, 444, 445, 446, 
    447, 448, 449, 450, 451, 452, 453, 454, 
    455, 456, 457, 458, 459, 460, 461, 462, 
    463, 464, 465, 466, 467, 468, 469, 470, 
    471, 472, 473, 474, 475, 476, 477, 478, 
** ... 7 like lines cut
*ELSET, ELSET=face_front_behind
    319, 320, 321, 322, 323, 324, 325, 326, 
    327, 328, 329, 330, 331, 332, 333, 334, 
    335, 336, 337, 338, 339, 340, 341, 342, 
    343, 344, 345, 346, 347, 348, 349, 350, 
    351, 352, 353, 354, 355, 356, 357, 358, 
    359, 360, 361, 362, 363, 364, 365, 366, 
    367, 368, 369, 370, 371, 372, 373, 374, 
    375, 376, 377, 378, 379, 380, 381, 382, 
    383, 384, 385, 386, 387, 388, 389, 390, 
    463, 464, 465, 466, 467, 468, 469, 470, 
    471, 472, 473, 474, 475, 476, 477, 478, 
    479, 480, 481, 482, 483, 484, 485, 486, 
    487, 488, 489, 490, 491, 492, 493, 494, 
    495, 496, 497, 498, 499, 500, 501, 502, 
    503, 504, 505, 506, 507, 508, 509, 510, 
    511, 512, 513, 514, 515, 516, 517, 518, 
    519, 520, 521, 522, 523, 524, 525, 526, 
    527, 528, 529, 530, 531, 532, 533, 534, 
    558, 559, 560, 589, 590, 603, 606, 659, 
    695, 696, 697, 698, 699, 700, 701, 702, 
** ... 33 like lines cut
*ELSET, ELSET=load_face
    219, 220, 221, 222, 223, 224, 225, 226, 
    227, 228, 229, 230, 231, 232, 233, 
*ELSET, ELSET=fix_face
    218, 234, 235, 236, 237, 238, 239, 258, 
    259, 260, 297, 298, 299, 300, 301, 302, 
    303, 304, 305, 306, 307, 308, 309, 310, 
    311, 312, 313, 314, 315, 316, 317, 318, 

*ELSET, ELSET=design_area
    1812, 0, 1835, 0, 0, 0, 1876, 1877, 
    0, 0, 0, 0, 0, 1967, 1970, 1972, 
    1982, 2002, 2021, 2079, 2092, 2097, 2101, 2110, 
    2116, 2135, 2141, 2147, 2151, 0, 2178, 2181, 
    0, 0, 0, 2314, 2332, 0, 0, 0, 
    0, 2394, 0, 2425, 2433, 2445, 2453, 0, 
    2473, 2482, 0, 2489, 2490, 0, 2545, 0, 
    2564, 0, 2594, 4326, 4327, 4328, 4329, 4330, 
    4331, 4332, 4333, 4334, 4335, 4336, 4337, 4338, 
    4339, 4340, 4341, 4342, 4343, 4344, 4345, 4346, 
    4347, 4348, 4349, 4350, 4351, 4352, 4353, 4354, 
    4355, 4356, 4357, 4358, 4359, 4360, 4361, 4362, 
    4363, 4364, 4365, 4366, 4367, 4368, 4369, 4370, 
    4371, 4372, 4373, 4374, 4375, 4376, 4377, 4378, 
    4379, 4380, 4381, 4382, 4383, 4384, 4385, 4386, 
    4387, 4388, 4389, 4390, 4391, 4392, 4393, 4394, 
    4395, 4396, 4397, 4398, 4399, 4400, 4401, 4402, 
    4403, 4404, 4405, 4406, 4407, 4408, 4409, 4410, 
    4411, 4412, 4413, 4414, 4415, 4416, 4417, 4418, 
    4419, 4420, 4421, 4422, 4423, 4424, 4425, 4426, 
** ... 463 like lines cut

*MATERIAL, NAME=Elastic_Mat
*DENSITY
7.81e-09,
*ELASTIC
210000., 0.3

*SOLID SECTION, ELSET=C3D4, MATERIAL=Elastic_Mat

**opt settings
*DESIGNVARIABLES,TYPE=COORDINATE
design_area
** --

** 
** STEP: Step-1
** 
*STEP
*STATIC
1., 1., 1e-05, 1.

*BOUNDARY
fix_face,1,3
load_face,1,1,5

** *CLOAD
** load_face, 1, 1e4.

*RESTART, WRITE, FREQUENCY=0

*NODE FILE
U,
RF

*NODE PRINT,NSET=design_area,FREQUENCY=233
U

*EL FILE
S,
E,

*EL PRINT,ELSET=C3D4,FREQUENCY=233
EVOL

*END STEP

** **
** **step sensitivity
** **
** *STEP
** *SENSITIVITY
** *DESIGN RESPONSE, NAME=STRESS_RESP
** STRESS,design_area,10.,120.
** *DESIGN RESPONSE, NAME=MASS_RESP
** MASS,C3D4
** *FILTER,TYPE=LINEAR,EDGE PRESERVATION=YES,DIRECTION WEIGHTING=YES
** 3.
** *NODE FILE
** SEN
** ** *EL PRINT,ELSET=Eall
** ** EVOL
** *END STEP

** ** **

** *STEP
** *FEASIBLE DIRECTION
** *OBJECTIVE,TARGET=MIN
** STRESS_RESP
** *CONSTRAINT
** **MASS_RESP,LE,1.,
** **MASS_RESP,GE,1.,
** MASS_RESP,LE,,0,
** MASS_RESP,GE,,0
** *NODE FILE
** SEN
** ** *EL PRINT
** ** EVOL
** *END STEP



