*NODE, NSET=NALL
    1, 0.0000000000e+00, 2.5000000000e-03, -1.6653345369e-18
    2, 0.0000000000e+00, -2.5000000000e-03, 1.6653345369e-18
    3, 0.0000000000e+00, -2.5000000000e-03, 2.5000000000e-02
    4, 0.0000000000e+00, 2.5000000000e-03, 2.5000000000e-02
    5, 4.0000000000e-02, 2.5000000000e-03, -1.6653345369e-18
    6, 4.0000000000e-02, -2.5000000000e-03, 1.6653345369e-18
    7, 4.0000000000e-02, -2.5000000000e-03, 1.0772229000e-02
    8, 1.8000000000e-02, -2.5000000000e-03, 1.0772229000e-02
    9, 1.8000000000e-02, -2.5000000000e-03, 6.0000000000e-03
    10, 6.0000000000e-03, -2.5000000000e-03, 6.0000000000e-03
    11, 6.0000000000e-03, -2.5000000000e-03, 1.8000000000e-02
    12, 1.2000000000e-02, -2.5000000000e-03, 1.8000000000e-02
    13, 1.2000000000e-02, -2.5000000000e-03, 2.5000000000e-02
    14, 1.2000000000e-02, 2.5000000000e-03, 2.5000000000e-02
    15, 4.0000000000e-02, 2.5000000000e-03, 1.0772229000e-02
    16, 1.8000000000e-02, 2.5000000000e-03, 1.0772229000e-02
    17, 1.8000000000e-02, 2.5000000000e-03, 6.0000000000e-03
    18, 6.0000000000e-03, 2.5000000000e-03, 6.0000000000e-03
    19, 6.0000000000e-03, 2.5000000000e-03, 1.8000000000e-02
    20, 1.2000000000e-02, 2.5000000000e-03, 1.8000000000e-02
** ... 4416 like lines cut
** *ELEMENT, TYPE=B31, ELSET=B31
**     1, 1, 23, 
**     2, 23, 24, 
**     3, 24, 25, 
**     4, 25, 26, 
**     5, 26, 27, 
**     6, 27, 2, 
**     7, 2, 28, 
**     8, 28, 29, 
**     9, 29, 30, 
**     10, 30, 31, 
**     11, 31, 32, 
**     12, 32, 33, 
**     13, 33, 34, 
**     14, 34, 35, 
**     15, 35, 36, 
**     16, 36, 37, 
**     17, 37, 38, 
**     18, 38, 39, 
**     19, 39, 40, 
**     20, 40, 41, 
** ... 402 like lines cut
** *ELEMENT, TYPE=CPS3, ELSET=CPS3
**     423, 23, 563, 1, 
**     424, 1, 563, 59, 
**     425, 2, 486, 27, 
**     426, 28, 486, 2, 
**     427, 3, 488, 53, 
**     428, 58, 488, 3, 
**     429, 4, 487, 54, 
**     430, 84, 487, 4, 
**     431, 24, 537, 23, 
**     432, 537, 563, 23, 
**     433, 25, 439, 24, 
**     434, 24, 439, 537, 
**     435, 26, 443, 25, 
**     436, 476, 439, 25, 
**     437, 25, 443, 476, 
**     438, 27, 536, 26, 
**     439, 536, 443, 26, 
**     440, 27, 486, 536, 
**     441, 29, 481, 28, 
**     442, 28, 481, 536, 
** ... 6252 like lines cut
*ELEMENT, TYPE=C3D4, ELSET=C3D4
    6695, 2671, 2719, 3863, 3436, 
    6696, 1855, 4074, 4034, 3442, 
    6697, 690, 3692, 3797, 3664, 
    6698, 3262, 3815, 799, 3493, 
    6699, 535, 3878, 3358, 3810, 
    6700, 3399, 3732, 3440, 3332, 
    6701, 3517, 4003, 3301, 3971, 
    6702, 3674, 3672, 1933, 3301, 
    6703, 3965, 3703, 4026, 3615, 
    6704, 3684, 4034, 3991, 3193, 
    6705, 799, 3815, 3262, 3522, 
    6706, 1068, 3373, 3209, 3393, 
    6707, 1282, 3454, 3446, 4227, 
    6708, 2591, 3376, 3867, 4000, 
    6709, 3379, 3981, 4147, 3595, 
    6710, 3830, 3318, 3678, 3689, 
    6711, 3320, 4136, 3994, 4143, 
    6712, 1274, 3290, 4031, 4139, 
    6713, 3419, 4177, 3900, 3926, 
    6714, 3994, 4136, 3438, 4143, 
** ... 18121 like lines cut
*NSET, NSET=design_area
    205, 206, 207, 208, 4229, 4230, 4231, 4232, 
    4233, 4234, 4235, 4236, 4237, 4238, 4239, 4240, 
    4241, 4242, 4243, 4244, 4245, 4246, 4247, 4248, 
    4249, 4250, 4251, 4252, 4253, 4254, 4255, 4256, 
    4257, 4258, 4259, 4260, 4261, 4262, 4263, 4264, 
    4265, 4266, 4267, 4268, 4269, 4270, 4271, 4272, 
    4273, 4274, 4275, 4276, 4277, 4278, 4279, 4280, 
    4281, 4282, 4283, 4284, 4285, 4286, 4287, 4288, 
    4289, 4290, 4291, 4292, 4293, 4294, 4295, 4296, 
    4297, 4298, 4299, 4300, 4301, 4302, 4303, 4304, 
    4305, 4306, 4307, 4308, 4309, 4310, 4311, 4312, 
    4313, 4314, 4315, 4316, 4317, 4318, 4319, 4320, 
    4321, 4322, 4323, 4324, 4325, 4326, 4327, 4328, 
    4329, 4330, 4331, 4332, 4333, 4334, 4335, 4336, 
    4337, 4338, 4339, 4340, 4341, 4342, 4343, 4344, 
    4345, 4346, 4347, 4348, 4349, 4350, 4351, 4352, 
    4353, 4354, 4355, 4356, 4357, 4358, 4359, 4360, 
    4361, 4362, 4363, 4364, 4365, 4366, 4367, 4368, 
    4369, 4370, 4371, 4372, 4373, 4374, 4375, 4376, 
    4377, 4378, 4379, 4380, 4381, 4382, 4383, 4384, 
** ... 97 like lines cut
*NSET, NSET=fix_face
    3, 23, 24, 25, 26, 27, 2, 1, 
    410, 411, 412, 413, 414, 415, 416, 417, 
    418, 419, 420, 421, 422, 423, 424, 425, 
    426, 427, 428, 429, 430, 431, 432, 433, 
    434, 435, 436, 437, 438, 439, 440, 441, 
    442, 443, 444, 445, 446, 447, 448, 449, 
    450, 451, 452, 453, 454, 455, 456, 457, 
    458, 459, 460, 461, 462, 463, 464, 465, 
    466, 467, 468, 469, 470, 471, 472, 473, 
    474, 475, 476, 477, 478, 479, 480, 481, 
    482, 483, 484, 485, 486, 487, 488, 489, 
    490, 491, 492, 493, 494, 495, 496, 497, 
    498, 499, 500, 501, 502, 503, 504, 505, 
    506, 507, 508, 509, 510, 511, 512, 513, 
    514, 515, 516, 517, 518, 519, 520, 521, 
    522, 523, 524, 525, 526, 527, 528, 529, 
    530, 531, 532, 533, 534, 535, 536, 537, 
    538, 539, 540, 541, 542, 543, 544, 545, 
    546, 547, 548, 549, 550, 551, 552, 553, 
    554, 555, 556, 557, 558, 559, 560, 561, 
** ... 9 like lines cut
*NSET, NSET=face_front_behind
    342, 343, 344, 345, 346, 347, 348, 205, 
    206, 207, 208, 3, 312, 313, 314, 315, 
    316, 317, 318, 319, 320, 321, 322, 323, 
    20, 17, 14, 6, 385, 386, 387, 388, 
    389, 390, 391, 324, 325, 326, 327, 328, 
    329, 330, 331, 332, 333, 334, 335, 90, 
    91, 92, 93, 94, 95, 96, 97, 98, 
    99, 100, 101, 102, 103, 104, 105, 106, 
    107, 108, 109, 110, 111, 112, 113, 114, 
    115, 116, 117, 118, 119, 120, 121, 122, 
    123, 124, 125, 126, 127, 128, 129, 130, 
    403, 404, 405, 406, 407, 408, 409, 336, 
    337, 338, 339, 340, 341, 2, 1581, 1582, 
    1583, 1584, 1585, 1586, 1587, 1588, 1589, 1590, 
    1591, 1592, 1593, 1594, 1595, 1596, 1597, 1598, 
    1599, 1600, 1601, 1602, 1603, 1604, 1605, 1606, 
    1607, 1608, 1609, 1610, 1611, 1612, 1613, 1614, 
    1615, 1616, 1617, 1618, 1619, 1620, 1621, 1622, 
    1623, 1624, 1625, 1626, 1627, 1628, 1629, 1630, 
    1631, 1632, 1633, 1634, 1635, 1636, 1637, 1638, 
** ... 226 like lines cut
*NSET, NSET=load_face
    6, 349, 350, 351, 352, 353, 2252, 2253, 
    2254, 2255, 2256, 2257, 2258, 2259, 2260, 2261, 
    2262, 2263, 2264, 2265, 2266, 2267, 2268, 2269, 
    2270, 2271, 2272, 2273, 2274, 2275, 2276, 2277, 
    2278, 2279, 2280, 2281, 2282, 2283, 2284, 2285, 
    2286, 2287, 2288, 2289, 2290, 2291, 2292, 2293, 
    2294, 2295, 2296, 2297, 2298, 2299, 2300, 2301, 
    2302, 2303, 2304, 2305, 2306, 2307, 2308, 2309, 
    2310, 2311, 2312, 2313, 2314, 2315, 2316, 2317, 
    2318, 2319, 2320, 2321, 2322, 2323, 2324, 2325, 
    2326, 2327, 2328, 2329, 172, 173, 174, 175, 
    176, 177, 178, 179, 180, 181, 182, 85, 
    86, 87, 88, 89, 5, 275, 276, 277, 
    278, 279, 280, 281, 282, 283, 284, 285, 
    7, 15, 
** *ELSET, ELSET=design_area
**     21512, 21513, 21514, 21515, 21516, 21517, 21518, 21519, 
**     21520, 21521, 21522, 21523, 21524, 21525, 21526, 21527, 
**     21528, 21529, 21530, 21531, 21532, 21533, 21534, 21535, 
**     21536, 21537, 21538, 21539, 21540, 21541, 21542, 21543, 
**     21544, 21545, 21546, 21547, 21548, 21549, 21550, 21551, 
**     21552, 21553, 21554, 21555, 21556, 21557, 21558, 21559, 
**     21560, 21561, 21562, 21563, 21564, 21565, 21566, 21567, 
**     21568, 21569, 21570, 21571, 21572, 21573, 21574, 21575, 
**     21576, 21577, 21578, 21579, 21580, 21581, 21582, 21583, 
**     21584, 21585, 21586, 21587, 21588, 21589, 21590, 21591, 
**     21592, 21593, 21594, 21595, 21596, 21597, 21598, 21599, 
**     21600, 21601, 21602, 21603, 21604, 21605, 21606, 21607, 
**     21608, 21609, 21610, 21611, 21612, 21613, 21614, 21615, 
**     21616, 21617, 21618, 21619, 21620, 21621, 21622, 21623, 
**     21624, 21625, 21626, 21627, 21628, 21629, 21630, 21631, 
**     21632, 21633, 21634, 21635, 21636, 21637, 21638, 21639, 
**     21640, 21641, 21642, 21643, 21644, 21645, 21646, 21647, 
**     21648, 21649, 21650, 21651, 21652, 21653, 21654, 21655, 
**     21656, 21657, 21658, 21659, 21660, 21661, 21662, 21663, 
**     21664, 21665, 21666, 21667, 21668, 21669, 21670, 21671, 
** ... 396 like lines cut
** *ELSET, ELSET=fix_face
**     423, 424, 425, 426, 427, 428, 429, 430, 
**     431, 432, 433, 434, 435, 436, 437, 438, 
**     439, 440, 441, 442, 443, 444, 445, 446, 
**     447, 448, 449, 450, 451, 452, 453, 454, 
**     455, 456, 457, 458, 459, 460, 461, 462, 
**     463, 464, 465, 466, 467, 468, 469, 470, 
**     471, 472, 473, 474, 475, 476, 477, 478, 
**     479, 480, 481, 482, 483, 484, 485, 486, 
**     487, 488, 489, 490, 491, 492, 493, 494, 
**     495, 496, 497, 498, 499, 500, 501, 502, 
**     503, 504, 505, 506, 507, 508, 509, 510, 
**     511, 512, 513, 514, 515, 516, 517, 518, 
**     519, 520, 521, 522, 523, 524, 525, 526, 
**     527, 528, 529, 530, 531, 532, 533, 534, 
**     535, 536, 537, 538, 539, 540, 541, 542, 
**     543, 544, 545, 546, 547, 548, 549, 550, 
**     551, 552, 553, 554, 555, 556, 557, 558, 
**     559, 560, 561, 562, 563, 564, 565, 566, 
**     567, 568, 569, 570, 571, 572, 573, 574, 
**     575, 576, 577, 578, 579, 580, 581, 582, 
** ... 30 like lines cut
** *ELSET, ELSET=face_front_behind
**     3120, 3121, 3122, 3123, 3124, 3125, 3126, 3127, 
**     3128, 3129, 3130, 3131, 3132, 3133, 3134, 3135, 
**     3136, 3137, 3138, 3139, 3140, 3141, 3142, 3143, 
**     3144, 3145, 3146, 3147, 3148, 3149, 3150, 3151, 
**     3152, 3153, 3154, 3155, 3156, 3157, 3158, 3159, 
**     3160, 3161, 3162, 3163, 3164, 3165, 3166, 3167, 
**     3168, 3169, 3170, 3171, 3172, 3173, 3174, 3175, 
**     3176, 3177, 3178, 3179, 3180, 3181, 3182, 3183, 
**     3184, 3185, 3186, 3187, 3188, 3189, 3190, 3191, 
**     3192, 3193, 3194, 3195, 3196, 3197, 3198, 3199, 
**     3200, 3201, 3202, 3203, 3204, 3205, 3206, 3207, 
**     3208, 3209, 3210, 3211, 3212, 3213, 3214, 3215, 
**     3216, 3217, 3218, 3219, 3220, 3221, 3222, 3223, 
**     3224, 3225, 3226, 3227, 3228, 3229, 3230, 3231, 
**     3232, 3233, 3234, 3235, 3236, 3237, 3238, 3239, 
**     3240, 3241, 3242, 3243, 3244, 3245, 3246, 3247, 
**     3248, 3249, 3250, 3251, 3252, 3253, 3254, 3255, 
**     3256, 3257, 3258, 3259, 3260, 3261, 3262, 3263, 
**     3264, 3265, 3266, 3267, 3268, 3269, 3270, 3271, 
**     3272, 3273, 3274, 3275, 3276, 3277, 3278, 3279, 
** ... 436 like lines cut
** *ELSET, ELSET=load_face
**     4623, 4624, 4625, 4626, 4627, 4628, 4629, 4630, 
**     4631, 4632, 4633, 4634, 4635, 4636, 4637, 4638, 
**     4639, 4640, 4641, 4642, 4643, 4644, 4645, 4646, 
**     4647, 4648, 4649, 4650, 4651, 4652, 4653, 4654, 
**     4655, 4656, 4657, 4658, 4659, 4660, 4661, 4662, 
**     4663, 4664, 4665, 4666, 4667, 4668, 4669, 4670, 
**     4671, 4672, 4673, 4674, 4675, 4676, 4677, 4678, 
**     4679, 4680, 4681, 4682, 4683, 4684, 4685, 4686, 
**     4687, 4688, 4689, 4690, 4691, 4692, 4693, 4694, 
**     4695, 4696, 4697, 4698, 4699, 4700, 4701, 4702, 
**     4703, 4704, 4705, 4706, 4707, 4708, 4709, 4710, 
**     4711, 4712, 4713, 4714, 4715, 4716, 4717, 4718, 
**     4719, 4720, 4721, 4722, 4723, 4724, 4725, 4726, 
**     4727, 4728, 4729, 4730, 4731, 4732, 4733, 4734, 
**     4735, 4736, 4737, 4738, 4739, 4740, 4741, 4742, 
**     4743, 4744, 4745, 4746, 4747, 4748, 4749, 4750, 
**     4751, 4752, 4753, 4754, 4755, 4756, 4757, 4758, 
**     4759, 4760, 4761, 4762, 4763, 4764, 4765, 4766, 
**     4767, 4768, 4769, 4770, 4771, 4772, 4773, 4774, 
**     4775, 4776, 4777, 4778, 4779, 4780, 4781, 4782, 
** ... 4 like lines cut

*MATERIAL, NAME=Elastic_Mat
*DENSITY
7.81e-09,
*ELASTIC
210000., 0.3

*SOLID SECTION, ELSET=C3D4, MATERIAL=Elastic_Mat

**opt settings
*DESIGNVARIABLES,TYPE=COORDINATE
design_area
** --

** 
** STEP: Step-1
** 
*STEP
*STATIC
1., 1., 1e-05, 1.

*BOUNDARY
fix_face,1,3
load_face,1,,0.001

** *CLOAD
** load_face, 1, 10000.

*RESTART, WRITE, FREQUENCY=0

*NODE FILE
U,
RF

*NODE PRINT,NSET=design_area,FREQUENCY=233
U

*EL FILE
S,
E,

*EL PRINT,ELSET=C3D4,FREQUENCY=233
EVOL

*END STEP

**
**step sensitivity
**
*STEP
*SENSITIVITY
*DESIGN RESPONSE, NAME=STRESS_RESP
STRESS,design_area,10.,750.
*DESIGN RESPONSE, NAME=MASS_RESP
MASS,C3D4
*FILTER,TYPE=LINEAR,EDGE PRESERVATION=YES,DIRECTION WEIGHTING=YES
3.
*NODE FILE
SEN
** *EL PRINT,ELSET=Eall
** EVOL
*END STEP

** **

*STEP
*FEASIBLE DIRECTION
*OBJECTIVE,TARGET=MIN
STRESS_RESP
*CONSTRAINT
**MASS_RESP,LE,1.,
**MASS_RESP,GE,1.,
MASS_RESP,LE,,0,
MASS_RESP,GE,,0
*NODE FILE
SEN
** *EL PRINT
** EVOL
*END STEP
