*NODE, NSET=NALL
    1, 0.0000000000e+00, 2.5000000000e+00, -1.6653345369e-15
    2, 0.0000000000e+00, -2.5000000000e+00, 1.6653345369e-15
    3, 0.0000000000e+00, -2.5000000000e+00, 2.5000000000e+01
    4, 0.0000000000e+00, 2.5000000000e+00, 2.5000000000e+01
    5, 3.0000000000e+01, 2.5000000000e+00, -1.3322676295e-15
    6, 3.0000000000e+01, -2.5000000000e+00, 1.3322676295e-15
    7, 3.0000000000e+01, -2.5000000000e+00, 1.0772229000e+01
    8, 1.2000000000e+01, -2.5000000000e+00, 1.0772229000e+01
    9, 1.2000000000e+01, -2.5000000000e+00, 2.5000000000e+01
    10, 1.2000000000e+01, 2.5000000000e+00, 2.5000000000e+01
    11, 3.0000000000e+01, 2.5000000000e+00, 1.0772229000e+01
    12, 1.2000000000e+01, 2.5000000000e+00, 1.0772229000e+01
    13, 4.0000000000e+01, 2.5000000000e+00, -1.6653345369e-15
    14, 4.0000000000e+01, -2.5000000000e+00, 1.6653345369e-15
    15, 4.0000000000e+01, 2.5000000000e+00, 1.0772229000e+01
    16, 4.0000000000e+01, -2.5000000000e+00, 1.0772229000e+01
    17, 0.0000000000e+00, 1.6666666667e+00, -1.1102230246e-15
    18, 0.0000000000e+00, 8.3333333333e-01, -5.5511151231e-16
    19, 0.0000000000e+00, 1.3322676296e-15, -2.5085776786e-28
    20, 0.0000000000e+00, -8.3333333333e-01, 5.5511151231e-16
** ... 4401 like lines cut
*ELEMENT, TYPE=C3D4, ELSET=C3D4
    6261, 4077, 3316, 3954, 4011, 
    6262, 4127, 3960, 3597, 3945, 
    6263, 1052, 1321, 757, 3985, 
    6264, 3869, 3549, 3875, 3231, 
    6265, 4062, 3477, 3235, 3338, 
    6266, 3960, 4127, 3597, 3991, 
    6267, 3838, 3316, 4077, 4011, 
    6268, 1538, 3555, 2997, 3940, 
    6269, 3990, 3498, 3791, 4072, 
    6270, 3869, 3231, 3875, 3709, 
    6271, 1665, 3523, 3811, 3685, 
    6272, 3508, 3713, 3551, 2979, 
    6273, 3869, 3549, 3231, 3216, 
    6274, 816, 3730, 3184, 3518, 
    6275, 4139, 4090, 3419, 3596, 
    6276, 1937, 3477, 3235, 2947, 
    6277, 1200, 3414, 3657, 3396, 
    6278, 4139, 3419, 3679, 3596, 
    6279, 3982, 3675, 2952, 3935, 
    6280, 1576, 3388, 4120, 3399, 
** ... 17997 like lines cut
*NSET, NSET=design_area
    261, 262, 263, 264, 265, 11, 10, 201, 
    202, 203, 204, 205, 229, 230, 231, 232, 
    233, 234, 235, 236, 237, 238, 239, 240, 
    241, 242, 243, 244, 245, 246, 175, 176, 
    177, 178, 179, 180, 181, 182, 183, 184, 
    185, 186, 187, 188, 266, 267, 268, 269, 
    270, 2222, 2223, 2224, 2225, 2226, 2227, 2228, 
    2229, 2230, 2231, 2232, 2233, 2234, 2235, 2236, 
    2237, 2238, 2239, 2240, 2241, 2242, 2243, 2244, 
    2245, 2246, 2247, 2248, 2249, 2250, 2251, 2252, 
    2253, 2254, 2255, 2256, 2257, 2258, 2259, 2260, 
    2261, 2262, 2263, 2264, 2265, 2266, 2267, 2268, 
    2269, 2270, 2271, 2272, 2273, 2274, 2275, 2276, 
    2277, 2278, 2279, 2280, 2281, 2282, 2283, 2284, 
    2285, 2286, 2287, 2288, 2289, 2290, 2291, 2292, 
    2293, 2294, 2295, 2296, 2297, 2298, 2299, 2300, 
    2301, 2302, 2303, 2304, 2305, 2306, 2307, 2308, 
    2309, 2310, 2311, 2312, 2313, 2314, 2315, 2316, 
    2317, 2318, 2319, 2320, 2321, 2322, 2323, 2324, 
    2325, 2326, 2327, 2328, 2329, 2330, 2331, 2332, 
** ... 16 like lines cut
*NSET, NSET=load_face
    15, 317, 318, 319, 320, 321, 322, 323, 
    324, 325, 326, 327, 16, 296, 297, 298, 
    299, 300, 301, 302, 303, 304, 305, 306, 
    291, 292, 293, 294, 295, 338, 339, 340, 
    341, 342, 2793, 2794, 2795, 2796, 2797, 2798, 
    2799, 2800, 2801, 2802, 2803, 2804, 2805, 2806, 
    2807, 2808, 2809, 2810, 2811, 2812, 2813, 2814, 
    2815, 2816, 2817, 2818, 2819, 2820, 2821, 2822, 
    2823, 2824, 2825, 2826, 2827, 2828, 2829, 2830, 
    2831, 2832, 2833, 2834, 2835, 2836, 2837, 2838, 
    2839, 2840, 2841, 2842, 2843, 2844, 2845, 2846, 
    2847, 2848, 2849, 2850, 2851, 2852, 2853, 2854, 
    2855, 2856, 2857, 2858, 2859, 2860, 2861, 2862, 
    2863, 2864, 2865, 2866, 2867, 2868, 2869, 2870, 
    13, 14, 
*NSET, NSET=fix_face
    2, 48, 49, 50, 51, 52, 4, 343, 
    344, 345, 346, 347, 348, 349, 350, 351, 
    352, 353, 354, 355, 356, 357, 358, 359, 
    360, 361, 362, 363, 364, 365, 366, 367, 
    368, 369, 370, 371, 372, 373, 374, 375, 
    376, 377, 378, 379, 380, 381, 382, 383, 
    384, 385, 386, 387, 388, 389, 390, 391, 
    392, 393, 394, 395, 396, 397, 398, 399, 
    400, 401, 402, 403, 404, 405, 406, 407, 
    408, 409, 410, 411, 412, 413, 414, 415, 
    416, 417, 418, 419, 420, 421, 422, 423, 
    424, 425, 426, 427, 428, 429, 430, 431, 
    432, 433, 434, 435, 436, 437, 438, 439, 
    440, 441, 442, 443, 444, 445, 446, 447, 
    448, 449, 450, 451, 452, 453, 454, 455, 
    456, 457, 458, 459, 460, 461, 462, 463, 
    464, 465, 466, 467, 468, 469, 470, 471, 
    472, 473, 474, 475, 476, 477, 478, 479, 
    480, 481, 482, 483, 484, 485, 486, 487, 
    488, 489, 490, 491, 492, 493, 494, 495, 
** ... 9 like lines cut
*ELSET, ELSET=design_area
    4551, 4552, 4553, 4554, 4555, 4556, 4557, 4558, 
    4559, 4560, 4561, 4562, 4563, 4564, 4565, 4566, 
    4567, 4568, 4569, 4570, 4571, 4572, 4573, 4574, 
    4575, 4576, 4577, 4578, 4579, 4580, 4581, 4582, 
    4583, 4584, 4585, 4586, 4587, 4588, 4589, 4590, 
    4591, 4592, 4593, 4594, 4595, 4596, 4597, 4598, 
    4599, 4600, 4601, 4602, 4603, 4604, 4605, 4606, 
    4607, 4608, 4609, 4610, 4611, 4612, 4613, 4614, 
    4615, 4616, 4617, 4618, 4619, 4620, 4621, 4622, 
    4623, 4624, 4625, 4626, 4627, 4628, 4629, 4630, 
    4631, 4632, 4633, 4634, 4635, 4636, 4637, 4638, 
    4639, 4640, 4641, 4642, 4643, 4644, 4645, 4646, 
    4647, 4648, 4649, 4650, 4651, 4652, 4653, 4654, 
    4655, 4656, 4657, 4658, 4659, 4660, 4661, 4662, 
    4663, 4664, 4665, 4666, 4667, 4668, 4669, 4670, 
    4671, 4672, 4673, 4674, 4675, 4676, 4677, 4678, 
    4679, 4680, 4681, 4682, 4683, 4684, 4685, 4686, 
    4687, 4688, 4689, 4690, 4691, 4692, 4693, 4694, 
    4695, 4696, 4697, 4698, 4699, 4700, 4701, 4702, 
    4703, 4704, 4705, 4706, 4707, 4708, 4709, 4710, 
** ... 41 like lines cut
*ELSET, ELSET=load_face
    5901, 5902, 5903, 5904, 5905, 5906, 5907, 5908, 
    5909, 5910, 5911, 5912, 5913, 5914, 5915, 5916, 
    5917, 5918, 5919, 5920, 5921, 5922, 5923, 5924, 
    5925, 5926, 5927, 5928, 5929, 5930, 5931, 5932, 
    5933, 5934, 5935, 5936, 5937, 5938, 5939, 5940, 
    5941, 5942, 5943, 5944, 5945, 5946, 5947, 5948, 
    5949, 5950, 5951, 5952, 5953, 5954, 5955, 5956, 
    5957, 5958, 5959, 5960, 5961, 5962, 5963, 5964, 
    5965, 5966, 5967, 5968, 5969, 5970, 5971, 5972, 
    5973, 5974, 5975, 5976, 5977, 5978, 5979, 5980, 
    5981, 5982, 5983, 5984, 5985, 5986, 5987, 5988, 
    5989, 5990, 5991, 5992, 5993, 5994, 5995, 5996, 
    5997, 5998, 5999, 6000, 6001, 6002, 6003, 6004, 
    6005, 6006, 6007, 6008, 6009, 6010, 6011, 6012, 
    6013, 6014, 6015, 6016, 6017, 6018, 6019, 6020, 
    6021, 6022, 6023, 6024, 6025, 6026, 6027, 6028, 
    6029, 6030, 6031, 6032, 6033, 6034, 6035, 6036, 
    6037, 6038, 6039, 6040, 6041, 6042, 6043, 6044, 
    6045, 6046, 6047, 6048, 6049, 6050, 6051, 6052, 
    6053, 6054, 6055, 6056, 6057, 6058, 6059, 6060, 
** ... 4 like lines cut
*ELSET, ELSET=fix_face
    353, 354, 355, 356, 357, 358, 359, 360, 
    361, 362, 363, 364, 365, 366, 367, 368, 
    369, 370, 371, 372, 373, 374, 375, 376, 
    377, 378, 379, 380, 381, 382, 383, 384, 
    385, 386, 387, 388, 389, 390, 391, 392, 
    393, 394, 395, 396, 397, 398, 399, 400, 
    401, 402, 403, 404, 405, 406, 407, 408, 
    409, 410, 411, 412, 413, 414, 415, 416, 
    417, 418, 419, 420, 421, 422, 423, 424, 
    425, 426, 427, 428, 429, 430, 431, 432, 
    433, 434, 435, 436, 437, 438, 439, 440, 
    441, 442, 443, 444, 445, 446, 447, 448, 
    449, 450, 451, 452, 453, 454, 455, 456, 
    457, 458, 459, 460, 461, 462, 463, 464, 
    465, 466, 467, 468, 469, 470, 471, 472, 
    473, 474, 475, 476, 477, 478, 479, 480, 
    481, 482, 483, 484, 485, 486, 487, 488, 
    489, 490, 491, 492, 493, 494, 495, 496, 
    497, 498, 499, 500, 501, 502, 503, 504, 
    505, 506, 507, 508, 509, 510, 511, 512, 
** ... 29 like lines cut

*MATERIAL, NAME=Elastic_Mat
*DENSITY
7.81e-09,
*ELASTIC
210000., 0.3

*SOLID SECTION, ELSET=C3D4, MATERIAL=Elastic_Mat

**opt settings
*DESIGN VARIABLES,TYPE=COORDINATE
design_area
** --

** 
** STEP: Step-1
** 
*STEP
*STATIC
1., 1., 1e-05, 1.

*BOUNDARY
fix_face,1,3
load_face,1,1,1

** *CLOAD
** load_face, 1, 10000.

*RESTART, WRITE, FREQUENCY=0

*NODE FILE
U,
RF

*NODE PRINT,NSET=design_area,FREQUENCY=233
U

*EL FILE
S,
E,

*EL PRINT,ELSET=C3D4,FREQUENCY=233
EVOL

*END STEP

**
**step sensitivity
**
*STEP
*SENSITIVITY
*DESIGN RESPONSE, NAME=STRESS_RESP
STRESS,design_area,10.,600.
*DESIGN RESPONSE, NAME=MASS_RESP
MASS,C3D4
*FILTER,TYPE=LINEAR,EDGE PRESERVATION=YES,DIRECTION WEIGHTING=YES
3.
*NODE FILE
SEN
** *EL PRINT,ELSET=Eall
** EVOL
*END STEP

** **

*STEP
*FEASIBLE DIRECTION
*OBJECTIVE,TARGET=MIN
STRESS_RESP
** *CONSTRAINT
** ** **MASS_RESP,LE,1.,
** ** **MASS_RESP,GE,1.,
** MASS_RESP,LE,,0,
** MASS_RESP,GE,,0
*NODE FILE
SEN
** *EL PRINT
** EVOL
*END STEP

